Version 4
SHEET 1 1908 1252
WIRE 624 208 576 208
WIRE 976 208 624 208
WIRE 1376 208 976 208
WIRE 80 224 80 144
WIRE 160 224 80 224
WIRE 400 224 304 224
WIRE 688 240 576 240
WIRE 1040 240 688 240
WIRE 1440 240 1040 240
WIRE 624 320 624 288
WIRE 688 320 624 320
WIRE 784 320 688 320
WIRE 976 320 976 288
WIRE 1040 320 976 320
WIRE 1152 320 1040 320
WIRE 1376 320 1376 288
WIRE 1440 320 1376 320
WIRE 1552 320 1440 320
WIRE 624 432 576 432
WIRE 976 432 624 432
WIRE 1376 432 976 432
WIRE 80 448 80 368
WIRE 160 448 80 448
WIRE 400 448 304 448
WIRE 688 464 576 464
WIRE 1040 464 688 464
WIRE 1440 464 1040 464
WIRE 624 544 624 512
WIRE 688 544 624 544
WIRE 784 544 784 320
WIRE 784 544 688 544
WIRE 976 544 976 512
WIRE 1040 544 976 544
WIRE 1152 544 1152 320
WIRE 1152 544 1040 544
WIRE 1376 544 1376 512
WIRE 1440 544 1376 544
WIRE 1552 544 1552 320
WIRE 1552 544 1440 544
WIRE 624 640 576 640
WIRE 976 640 624 640
WIRE 1376 640 976 640
WIRE 80 656 80 576
WIRE 160 656 80 656
WIRE 400 656 304 656
WIRE 688 672 576 672
WIRE 1040 672 688 672
WIRE 1440 672 1040 672
WIRE 624 752 624 720
WIRE 688 752 624 752
WIRE 784 752 784 544
WIRE 784 752 688 752
WIRE 976 752 976 720
WIRE 1040 752 976 752
WIRE 1152 752 1152 544
WIRE 1152 752 1040 752
WIRE 1376 752 1376 720
WIRE 1440 752 1376 752
WIRE 1552 752 1552 544
WIRE 1552 752 1440 752
WIRE 784 880 784 752
WIRE 816 880 784 880
WIRE 992 880 928 880
WIRE 1152 880 1152 752
WIRE 1184 880 1152 880
WIRE 1360 880 1296 880
WIRE 1552 880 1552 752
WIRE 1584 880 1552 880
WIRE 1776 880 1696 880
WIRE 992 976 992 880
WIRE 1360 976 1360 880
WIRE 1776 976 1776 880
WIRE 992 1184 992 1120
WIRE 1360 1184 1360 1120
WIRE 1776 1184 1776 1120
FLAG 80 64 VDD
FLAG -96 208 0
FLAG -96 128 VDD
FLAG 80 288 VDD
FLAG 80 496 VDD
SYMBOL current 80 64 R0
WINDOW 123 0 0 Left 0
WINDOW 39 0 0 Left 0
SYMATTR InstName I1
SYMATTR Value PULSE(30n 0 110u 1n 1n 110u)
SYMBOL voltage -96 112 R0
WINDOW 123 0 0 Left 0
WINDOW 39 0 0 Left 0
SYMATTR InstName V1
SYMATTR Value 1.8
SYMBOL res 608 192 R0
SYMATTR InstName R2
SYMATTR Value 332
SYMBOL res 672 224 R0
SYMATTR InstName R3
SYMATTR Value 220
SYMBOL res 960 192 R0
SYMATTR InstName R4
SYMATTR Value 332
SYMBOL res 1024 224 R0
SYMATTR InstName R5
SYMATTR Value 290
SYMBOL res 1360 192 R0
SYMATTR InstName R6
SYMATTR Value 332
SYMBOL res 1424 224 R0
SYMATTR InstName R7
SYMATTR Value 250
SYMBOL res 608 416 R0
SYMATTR InstName R8
SYMATTR Value 332
SYMBOL res 672 448 R0
SYMATTR InstName R9
SYMATTR Value 332
SYMBOL res 960 416 R0
SYMATTR InstName R10
SYMATTR Value 332
SYMBOL res 1024 448 R0
SYMATTR InstName R11
SYMATTR Value 332
SYMBOL res 1360 416 R0
SYMATTR InstName R12
SYMATTR Value 332
SYMBOL res 1424 448 R0
SYMATTR InstName R13
SYMATTR Value 332
SYMBOL res 608 624 R0
SYMATTR InstName R14
SYMATTR Value 332
SYMBOL res 672 656 R0
SYMATTR InstName R15
SYMATTR Value 332
SYMBOL res 960 624 R0
SYMATTR InstName R16
SYMATTR Value 332
SYMBOL res 1024 656 R0
SYMATTR InstName R17
SYMATTR Value 332
SYMBOL res 1360 624 R0
SYMATTR InstName R18
SYMATTR Value 332
SYMBOL res 1424 656 R0
SYMATTR InstName R19
SYMATTR Value 332
SYMBOL current 80 288 R0
WINDOW 123 0 0 Left 0
WINDOW 39 0 0 Left 0
WINDOW 3 24 28 Left 2
SYMATTR Value 0
SYMATTR InstName I2
SYMBOL current 80 496 R0
WINDOW 123 0 0 Left 0
WINDOW 39 0 0 Left 0
WINDOW 3 24 28 Left 2
SYMATTR Value 0
SYMATTR InstName I3
SYMBOL I_controlled_I_source 864 880 R0
SYMATTR InstName X10
SYMBOL I_controlled_I_source 1232 880 R0
SYMATTR InstName X11
SYMBOL I_controlled_I_source 1632 880 R0
SYMATTR InstName X12
SYMBOL LIFtest_mod 224 224 R0
SYMATTR InstName X1
SYMBOL LIFtest_mod 224 448 R0
SYMATTR InstName X3
SYMBOL LIFtest_mod 224 656 R0
SYMATTR InstName X5
SYMBOL TempotronCircuit_new 480 224 R0
SYMATTR InstName X2
SYMBOL TempotronCircuit_new 480 448 R0
SYMATTR InstName X4
SYMBOL TempotronCircuit_new 480 656 R0
SYMATTR InstName X6
SYMBOL LIFtest_mod 992 1040 R90
SYMATTR InstName X7
SYMBOL LIFtest_mod 1360 1040 R90
SYMATTR InstName X8
SYMBOL LIFtest_mod 1776 1040 R90
SYMATTR InstName X9
TEXT -128 232 Left 2 !.tran 220u
