Version 4
SHEET 1 2452 976
WIRE 576 -528 576 -576
WIRE 624 -528 576 -528
WIRE 624 -496 432 -496
WIRE 1264 -480 752 -480
WIRE -320 -384 -368 -384
WIRE 304 -288 240 -288
WIRE -320 -256 -368 -256
WIRE 1072 -256 480 -256
WIRE 1200 -208 1120 -208
WIRE 352 -176 352 -272
WIRE 960 -144 960 -176
WIRE 992 -144 960 -144
WIRE 960 -128 960 -144
WIRE 1248 -128 1248 -192
WIRE 480 -96 480 -256
WIRE 480 -96 400 -96
WIRE 992 -80 992 -144
WIRE 992 -80 960 -80
WIRE 912 -48 816 -48
WIRE 1200 -48 1120 -48
WIRE 224 48 112 48
WIRE 352 48 352 -80
WIRE 352 48 224 48
WIRE 432 48 432 -496
WIRE 432 48 352 48
WIRE 528 48 432 48
WIRE 960 48 960 -32
WIRE 1072 48 1072 -256
WIRE 1072 48 960 48
WIRE 1120 48 1120 -48
WIRE 1120 48 1072 48
WIRE 1248 48 1248 -32
WIRE 1408 48 1248 48
WIRE 1520 48 1408 48
WIRE 528 64 528 48
WIRE 624 64 528 64
WIRE 960 64 960 48
WIRE 224 80 224 48
WIRE 112 96 112 48
WIRE 624 96 560 96
WIRE 816 112 816 -48
WIRE 816 112 752 112
WIRE 992 112 960 112
WIRE 1408 112 1408 48
WIRE 1248 128 1248 48
WIRE 560 144 560 96
WIRE 816 144 816 112
WIRE 912 144 816 144
WIRE 960 176 960 160
WIRE 992 176 992 112
WIRE 992 176 960 176
WIRE 1312 176 1248 176
WIRE 1120 208 1120 48
WIRE 1200 208 1120 208
WIRE 960 240 960 176
WIRE 352 288 352 48
WIRE 1248 288 1248 224
WIRE 480 304 400 304
WIRE 592 320 544 320
WIRE 352 336 320 336
WIRE 1248 384 1248 368
WIRE 1312 384 1312 176
WIRE 1312 384 1248 384
WIRE 544 400 544 352
WIRE 320 432 320 336
WIRE 352 432 352 384
WIRE 352 432 320 432
WIRE 1248 432 1248 384
WIRE 352 528 352 432
WIRE 592 576 592 320
WIRE 1520 576 1520 48
WIRE 1520 576 592 576
FLAG 224 144 0
FLAG 352 528 0
FLAG -448 -384 0
FLAG -320 -384 VDD
FLAG 112 176 0
FLAG 224 48 Vmem
IOPIN 224 48 In
FLAG 480 144 0
FLAG 960 240 0
FLAG 960 -176 VDD
FLAG 1248 432 0
FLAG 1408 176 0
FLAG 1408 48 VC2
FLAG 544 400 0
FLAG -448 -256 0
FLAG -320 -256 VSS
FLAG 752 48 VDD
FLAG 752 80 VSS
FLAG 352 48 Vmem
FLAG 528 48 Vmem
FLAG 352 -368 VDD
FLAG 240 -208 0
FLAG 352 -320 VDD
FLAG 352 -128 VDD
FLAG 1248 -288 VDD
FLAG 1248 -240 VDD
FLAG 1120 -128 0
FLAG 1248 -80 VDD
FLAG 496 -576 0
FLAG 752 -544 VDD
FLAG 752 -512 VSS
FLAG 1264 -480 Out
SYMBOL cap 208 80 R0
SYMATTR InstName C1
SYMATTR Value 0.5p
SYMBOL voltage -352 -384 R90
WINDOW 0 -32 56 VBottom 2
WINDOW 3 32 56 VTop 2
WINDOW 123 0 0 Left 0
WINDOW 39 0 0 Left 0
SYMATTR InstName V1
SYMATTR Value 1.8
SYMBOL res 96 80 R0
WINDOW 3 36 76 Left 1
SYMATTR Value 33.33e6
SYMATTR InstName R8
SYMBOL voltage 576 144 M270
WINDOW 0 32 56 VTop 2
WINDOW 3 -32 56 VBottom 2
WINDOW 123 0 0 Left 0
WINDOW 39 0 0 Left 0
SYMATTR InstName V2
SYMATTR Value 90m
SYMBOL cap 1392 112 R0
SYMATTR InstName C2
SYMATTR Value 50p
SYMBOL res 1232 272 R0
SYMATTR InstName R2
SYMATTR Value 69k
SYMBOL Digital\\schmitt 544 256 M0
WINDOW 3 0 0 Invisible 0
SYMATTR Value Vhigh=1.8 Vt=100m Vh=60m Trise=1n Tfall=1n
SYMATTR InstName A1
SYMBOL voltage -352 -256 R90
WINDOW 0 -32 56 VBottom 2
WINDOW 3 32 56 VTop 2
WINDOW 123 0 0 Left 0
WINDOW 39 0 0 Left 0
SYMATTR InstName V5
SYMATTR Value -1.8
SYMBOL AutoGenerated\\TLV9032 688 80 R0
SYMATTR InstName U1
SYMBOL cmosn-180 912 64 R0
SYMATTR InstName M1
SYMATTR Value2 w=180n
SYMBOL cmosp-180n 912 -128 R0
SYMATTR InstName M2
SYMATTR Value2 w=180n
SYMBOL voltage 240 -304 R0
WINDOW 123 0 0 Left 0
WINDOW 39 0 0 Left 0
SYMATTR InstName V3
SYMATTR Value 0.2
SYMBOL cmosp-180n 304 -368 R0
SYMATTR InstName M4
SYMATTR Value2 w=900n
SYMBOL cmosp-180n 400 -176 M0
SYMATTR InstName M5
SYMATTR Value2 w=540n
SYMBOL cmosp-180n 1200 -288 R0
SYMATTR InstName M8
SYMATTR Value2 w=2700n
SYMBOL cmosn-180 400 384 R180
SYMATTR InstName M7
SYMATTR Value2 w=1080n m=1
SYMBOL voltage 1120 -224 R0
WINDOW 123 0 0 Left 0
WINDOW 39 0 0 Left 0
SYMATTR InstName V6
SYMATTR Value 0.1
SYMBOL cmosp-180n 1200 -128 R0
SYMATTR InstName M9
SYMATTR Value2 w=27000n
SYMBOL cmosn-180 1200 128 R0
SYMATTR InstName M3
SYMATTR Value2 w=180n
SYMBOL AutoGenerated\\TLV9032 688 -512 R0
SYMATTR InstName U2
SYMBOL voltage 592 -576 R90
WINDOW 0 -32 56 VBottom 2
WINDOW 3 32 56 VTop 2
WINDOW 123 0 0 Left 0
WINDOW 39 0 0 Left 0
SYMATTR InstName V4
SYMATTR Value 200m
TEXT -120 360 Left 2 !.tran 100u
TEXT 248 112 Left 1 !.ic V(Vmem) = 0
TEXT 1344 224 Left 2 !.ic V(VC2) = 0
TEXT 624 -24 Left 2 ;Comparator
TEXT -120 392 Left 2 !.include tsmc018.lib
