Version 4
SHEET 1 2400 1156
WIRE 208 -48 208 -112
WIRE 1072 -48 1072 -112
WIRE 512 16 512 -48
WIRE 192 80 192 0
WIRE 192 80 96 80
WIRE 288 80 288 0
WIRE 368 80 288 80
WIRE 1056 80 1056 0
WIRE 1056 80 960 80
WIRE 1152 80 1152 0
WIRE 1232 80 1152 80
WIRE 464 96 416 96
WIRE 192 176 192 80
WIRE 288 176 288 80
WIRE 1056 176 1056 80
WIRE 1152 176 1152 80
WIRE 1328 224 1280 224
WIRE 272 304 272 224
WIRE 512 304 512 112
WIRE 656 304 656 32
WIRE 656 304 512 304
WIRE 752 304 656 304
WIRE 1136 304 1136 224
WIRE 1632 304 1632 272
WIRE 512 336 512 304
WIRE 1376 336 1376 240
WIRE 1504 336 1504 256
WIRE 1504 336 1376 336
WIRE 1584 336 1504 336
WIRE 1376 352 1376 336
WIRE 368 416 368 80
WIRE 464 416 368 416
WIRE 208 432 208 368
WIRE 1072 432 1072 368
WIRE 1232 432 1232 80
WIRE 1328 432 1232 432
WIRE -192 480 -192 432
WIRE -192 480 -256 480
WIRE -144 480 -144 448
WIRE -80 480 -144 480
WIRE 512 528 512 432
WIRE -144 544 -144 480
WIRE 192 560 192 480
WIRE 192 560 96 560
WIRE 288 560 288 480
WIRE 368 560 368 416
WIRE 368 560 288 560
WIRE 1056 560 1056 480
WIRE 1056 560 960 560
WIRE 1152 560 1152 480
WIRE 1232 560 1232 432
WIRE 1232 560 1152 560
WIRE 1376 576 1376 448
WIRE -192 624 -192 480
WIRE 192 656 192 560
WIRE 288 656 288 560
WIRE 1056 656 1056 560
WIRE 1152 656 1152 560
WIRE 1952 736 1808 736
WIRE 272 784 272 704
WIRE 1136 784 1136 704
WIRE 1808 816 1808 736
WIRE 1856 816 1808 816
WIRE 1952 832 1952 736
WIRE 1952 832 1920 832
WIRE 2064 832 1952 832
WIRE 800 848 800 320
WIRE 960 848 800 848
WIRE 1104 848 960 848
WIRE 1632 848 1632 352
WIRE 1632 848 1104 848
WIRE 1696 848 1632 848
WIRE 1856 848 1776 848
WIRE 960 880 960 848
WIRE 2208 896 2064 896
WIRE 1104 912 1104 848
WIRE 1952 960 1952 832
WIRE 1968 960 1952 960
WIRE 2064 960 2064 896
WIRE 2064 960 2048 960
WIRE 2096 960 2064 960
WIRE 2208 976 2160 976
WIRE 2272 976 2208 976
WIRE 2096 992 2064 992
WIRE 2064 1040 2064 992
FLAG 96 80 VDD
FLAG -624 48 0
FLAG -624 -32 VDD
FLAG 208 -112 Vpre
IOPIN 208 -112 In
FLAG 272 304 Vprep
FLAG 208 368 Vprep
FLAG 272 784 Vpre
FLAG -496 448 0
FLAG -496 368 VS1
FLAG 96 560 VS1
FLAG 656 -32 VDD
FLAG 800 224 VDD
FLAG 656 304 VC1
FLAG -624 240 0
FLAG -624 160 VS2
FLAG 512 -48 VDD
FLAG -496 656 0
FLAG -496 576 VS3
FLAG 416 96 VS3
FLAG 512 528 VS2
FLAG -512 48 0
FLAG -512 -32 VSS
FLAG -608 448 0
FLAG -608 368 VS1p
FLAG -608 656 0
FLAG -608 576 VS3p
FLAG -496 240 0
FLAG -496 160 VS2p
FLAG 1376 576 VS2p
FLAG 1504 336 VC2
FLAG 1376 144 VSS
FLAG 1280 224 VS3p
FLAG 1504 192 VSS
FLAG 1632 256 VSS
FLAG 1104 976 0
FLAG -256 480 Vpre
FLAG -144 352 VDD
FLAG -80 480 Vprep
FLAG 960 960 0
FLAG 1888 800 VDD
FLAG 1888 864 VSS
FLAG 2064 832 Vout
IOPIN 2064 832 Out
FLAG 2128 944 VDD
FLAG 2128 1008 VSS
FLAG 2064 1040 0
FLAG 2272 976 Voutp
IOPIN 2272 976 Out
FLAG 240 176 VDD
FLAG 240 656 VDD
FLAG 512 64 VDD
FLAG 800 272 VDD
FLAG 1072 -112 Vpre
IOPIN 1072 -112 In
FLAG 1136 304 Vprep
FLAG 1072 368 Vprep
FLAG 1104 176 VDD
FLAG 1104 656 VDD
FLAG 1104 0 VSS
FLAG 1104 480 VSS
FLAG -144 640 VSS
FLAG -144 592 VSS
FLAG -144 400 VDD
FLAG 1136 784 Vpre
FLAG 240 0 VSS
FLAG 240 480 VSS
FLAG 1376 192 VSS
FLAG 512 384 VDD
FLAG 960 80 VSS
FLAG 960 560 VS1p
FLAG 1376 400 VSS
SYMBOL voltage -624 -48 R0
WINDOW 123 0 0 Left 0
WINDOW 39 0 0 Left 0
SYMATTR InstName V1
SYMATTR Value 1.8
SYMBOL voltage -496 352 R0
WINDOW 123 0 0 Left 0
WINDOW 39 0 0 Left 0
SYMATTR InstName V4
SYMATTR Value 0.7
SYMBOL cap 640 -32 R0
SYMATTR InstName C1
SYMATTR Value 4p
SYMBOL voltage -624 144 R0
WINDOW 123 0 0 Left 0
WINDOW 39 0 0 Left 0
SYMATTR InstName V5
SYMATTR Value 1.65
SYMBOL voltage -496 560 R0
WINDOW 123 0 0 Left 0
WINDOW 39 0 0 Left 0
SYMATTR InstName V6
SYMATTR Value 1.6
SYMBOL voltage -512 -48 R0
WINDOW 123 0 0 Left 0
WINDOW 39 0 0 Left 0
SYMATTR InstName V7
SYMATTR Value -1.8
SYMBOL voltage -608 352 R0
WINDOW 123 0 0 Left 0
WINDOW 39 0 0 Left 0
SYMATTR InstName V8
SYMATTR Value -0.7
SYMBOL voltage -608 560 R0
WINDOW 123 0 0 Left 0
WINDOW 39 0 0 Left 0
SYMATTR InstName V9
SYMATTR Value -1.6
SYMBOL voltage -496 144 R0
WINDOW 123 0 0 Left 0
WINDOW 39 0 0 Left 0
SYMATTR InstName V10
SYMATTR Value -1.65
SYMBOL cap 1488 192 R0
SYMATTR InstName C2
SYMATTR Value 7p
SYMBOL CMOSN 1328 144 R0
SYMATTR InstName M8
SYMBOL CMOSN 1584 256 R0
SYMATTR InstName M7
SYMATTR Value2 l=130n w=200n
SYMBOL cap 1088 912 R0
SYMATTR InstName C3
SYMATTR Value 0.25p
SYMBOL res 944 864 R0
SYMATTR InstName R1
SYMATTR Value 6e6
SYMBOL res 2064 944 R90
WINDOW 0 0 56 VBottom 2
WINDOW 3 32 56 VTop 2
SYMATTR InstName R2
SYMATTR Value 1k
SYMBOL OpAmps\\UniversalOpAmp 2128 976 R0
SYMATTR InstName U2
SYMBOL res 2192 880 R0
SYMATTR InstName R3
SYMATTR Value 1k
SYMBOL voltage 1792 848 R90
WINDOW 0 -32 56 VBottom 2
WINDOW 3 32 56 VTop 2
WINDOW 123 0 0 Left 0
WINDOW 39 0 0 Left 0
SYMATTR InstName V3
SYMATTR Value 24.72µ
SYMBOL cmosn-180 288 -48 R90
SYMATTR InstName M1
SYMATTR Value2 w=540n
SYMBOL cmosp-180n 192 224 R270
SYMATTR InstName M2
SYMATTR Value2 w=540n
SYMBOL cmosn-180 288 432 R90
SYMATTR InstName M3
SYMATTR Value2 w=540n
SYMBOL cmosp-180n 192 704 R270
SYMATTR InstName M4
SYMATTR Value2 w=540n
SYMBOL cmosp-180n 464 16 R0
SYMATTR InstName M6
SYMATTR Value2 w=180n
SYMBOL cmosp-180n 752 224 R0
SYMATTR InstName M5
SYMBOL cmosn-180 1152 -48 R90
SYMATTR InstName M12
SYMATTR Value2 w=540n
SYMBOL cmosp-180n 1056 224 R270
SYMATTR InstName M13
SYMATTR Value2 w=540n
SYMBOL cmosn-180 1152 432 R90
SYMATTR InstName M14
SYMATTR Value2 w=540n
SYMBOL cmosp-180n 1056 704 R270
SYMATTR InstName M15
SYMATTR Value2 w=540n
SYMBOL cmosn-180 -192 544 R0
SYMATTR InstName M9
SYMATTR Value2 w=180n
SYMBOL cmosp-180n -192 352 R0
SYMATTR InstName M10
SYMATTR Value2 w=180n
SYMBOL pmos4 464 336 R0
SYMATTR InstName M11
SYMBOL nmos4 1328 352 R0
SYMATTR InstName M16
SYMBOL OpAmps\\UniversalOpAmp 1888 832 R0
SYMATTR InstName U1
TEXT -600 -144 Left 2 !.tran 100u
TEXT 720 -24 Left 2 !.ic V(VC1)=1.8
TEXT -600 -184 Left 2 !.include ibm130.lib
TEXT 1488 104 Left 2 !.ic V(VC2)=-1.8
