Version 4
SHEET 1 2400 1156
WIRE 208 -48 208 -112
WIRE 512 16 512 -48
WIRE 1088 32 1088 -32
WIRE 512 64 512 32
WIRE 192 80 192 0
WIRE 192 80 96 80
WIRE 288 80 288 0
WIRE 368 80 288 80
WIRE 1072 80 960 80
WIRE 1232 80 1152 80
WIRE 464 96 416 96
WIRE 192 176 192 80
WIRE 288 176 288 80
WIRE 1376 192 1376 160
WIRE 1328 224 1280 224
WIRE 800 272 800 240
WIRE 272 304 272 224
WIRE 512 304 512 112
WIRE 656 304 656 32
WIRE 656 304 512 304
WIRE 752 304 656 304
WIRE 1632 304 1632 272
WIRE 512 336 512 304
WIRE 512 336 464 336
WIRE 1376 336 1376 240
WIRE 1504 336 1504 256
WIRE 1504 336 1376 336
WIRE 1584 336 1504 336
WIRE 512 368 512 336
WIRE 1376 368 1376 336
WIRE 464 384 464 336
WIRE 1232 384 1232 80
WIRE 1328 384 1232 384
WIRE 208 432 208 368
WIRE 368 432 368 80
WIRE 464 432 368 432
WIRE -192 480 -192 368
WIRE -192 480 -256 480
WIRE -144 480 -144 448
WIRE -80 480 -144 480
WIRE 1328 480 1328 432
WIRE 1376 480 1376 448
WIRE 1376 480 1328 480
WIRE 512 528 512 448
WIRE -144 544 -144 480
WIRE 192 560 192 480
WIRE 192 560 96 560
WIRE 288 560 288 480
WIRE 368 560 368 432
WIRE 368 560 288 560
WIRE 1072 560 960 560
WIRE 1232 560 1232 384
WIRE 1232 560 1152 560
WIRE 1376 576 1376 480
WIRE -192 624 -192 480
WIRE 192 656 192 560
WIRE 288 656 288 560
WIRE 1136 656 1136 608
WIRE 1952 656 1808 656
WIRE 1808 736 1808 656
WIRE 1856 736 1808 736
WIRE 1952 752 1952 656
WIRE 1952 752 1920 752
WIRE 2064 752 1952 752
WIRE 800 768 800 320
WIRE 960 768 800 768
WIRE 1104 768 960 768
WIRE 1632 768 1632 352
WIRE 1632 768 1104 768
WIRE 1696 768 1632 768
WIRE 1856 768 1776 768
WIRE 272 784 272 704
WIRE 960 800 960 768
WIRE 2208 816 2064 816
WIRE 1104 832 1104 768
WIRE 1952 880 1952 752
WIRE 1968 880 1952 880
WIRE 2064 880 2064 816
WIRE 2064 880 2048 880
WIRE 2096 880 2064 880
WIRE 2208 896 2160 896
WIRE 2272 896 2208 896
WIRE 2096 912 2064 912
WIRE 2064 960 2064 912
FLAG 96 80 VDD
FLAG -624 48 0
FLAG -624 -32 VDD
FLAG 208 -112 Vpre
IOPIN 208 -112 In
FLAG 272 304 Vprep
FLAG 208 368 Vprep
FLAG 272 784 Vpre
FLAG -496 448 0
FLAG -496 368 VS1
FLAG 96 560 VS1
FLAG 656 -32 VDD
FLAG 800 224 VDD
FLAG 656 304 VC1
FLAG -624 240 0
FLAG -624 160 VS2
FLAG 512 -48 VDD
FLAG -496 656 0
FLAG -496 576 VS3
FLAG 416 96 VS3
FLAG 512 528 VS2
FLAG -512 48 0
FLAG -512 -32 VSS
FLAG -608 448 0
FLAG -608 368 VS1p
FLAG -608 656 0
FLAG -608 576 VS3p
FLAG -496 240 0
FLAG -496 160 VS2p
FLAG 960 80 VSS
FLAG 1088 -32 Vprep
FLAG 960 560 VS1p
FLAG 1376 576 VS2p
FLAG 1504 336 VC2
FLAG 1136 32 0
FLAG 1088 608 0
FLAG 1136 656 Vpre
FLAG 1376 144 VSS
FLAG 1280 224 VS3p
FLAG 1504 192 VSS
FLAG 1632 256 VSS
FLAG 1104 896 0
FLAG -256 480 Vpre
FLAG -144 640 0
FLAG -144 352 VDD
FLAG -80 480 Vprep
FLAG 960 880 0
FLAG 1888 720 VDD
FLAG 1888 784 VSS
FLAG 2064 752 Vout
IOPIN 2064 752 Out
FLAG 2128 864 VDD
FLAG 2128 928 VSS
FLAG 2064 960 0
FLAG 2272 896 Voutp
IOPIN 2272 896 Out
FLAG 240 176 VDD
FLAG 240 656 VDD
FLAG 240 0 0
FLAG 240 480 0
SYMBOL voltage -624 -48 R0
WINDOW 123 0 0 Left 0
WINDOW 39 0 0 Left 0
SYMATTR InstName V1
SYMATTR Value 1.8
SYMBOL voltage -496 352 R0
WINDOW 123 0 0 Left 0
WINDOW 39 0 0 Left 0
SYMATTR InstName V4
SYMATTR Value 0.7
SYMBOL cap 640 -32 R0
SYMATTR InstName C1
SYMATTR Value 4.2p
SYMBOL voltage -624 144 R0
WINDOW 123 0 0 Left 0
WINDOW 39 0 0 Left 0
SYMATTR InstName V5
SYMATTR Value 1.65
SYMBOL voltage -496 560 R0
WINDOW 123 0 0 Left 0
WINDOW 39 0 0 Left 0
SYMATTR InstName V6
SYMATTR Value 1.7
SYMBOL sw 512 464 M180
SYMATTR InstName S1
SYMATTR Value SW1
SYMBOL CMOSP 464 16 R0
SYMATTR InstName M6
SYMBOL CMOSP 752 224 R0
SYMATTR InstName M5
SYMATTR Value2 l=130n w=1.2u
SYMBOL voltage -512 -48 R0
WINDOW 123 0 0 Left 0
WINDOW 39 0 0 Left 0
SYMATTR InstName V7
SYMATTR Value -1.8
SYMBOL voltage -608 352 R0
WINDOW 123 0 0 Left 0
WINDOW 39 0 0 Left 0
SYMATTR InstName V8
SYMATTR Value -0.7
SYMBOL voltage -608 560 R0
WINDOW 123 0 0 Left 0
WINDOW 39 0 0 Left 0
SYMATTR InstName V9
SYMATTR Value -1.7
SYMBOL voltage -496 144 R0
WINDOW 123 0 0 Left 0
WINDOW 39 0 0 Left 0
SYMATTR InstName V10
SYMATTR Value -1.65
SYMBOL sw 1376 352 R0
SYMATTR InstName S2
SYMATTR Value SW2
SYMBOL cap 1488 192 R0
SYMATTR InstName C2
SYMATTR Value 28p
SYMBOL sw 1168 80 R90
SYMATTR InstName S3
SYMATTR Value SW1
SYMBOL sw 1056 560 R270
SYMATTR InstName S4
SYMATTR Value SW1
SYMBOL CMOSN 1328 144 R0
SYMATTR InstName M8
SYMBOL CMOSN 1584 256 R0
SYMATTR InstName M7
SYMATTR Value2 l=130n w=200n
SYMBOL cap 1088 832 R0
SYMATTR InstName C3
SYMATTR Value 1.5p
SYMBOL nmos -192 544 R0
SYMATTR InstName M9
SYMBOL pmos -192 448 M180
SYMATTR InstName M10
SYMBOL res 944 784 R0
SYMATTR InstName R1
SYMATTR Value 1e6
SYMBOL res 2064 864 R90
WINDOW 0 0 56 VBottom 2
WINDOW 3 32 56 VTop 2
SYMATTR InstName R2
SYMATTR Value 1k
SYMBOL res 2192 800 R0
SYMATTR InstName R3
SYMATTR Value 1k
SYMBOL voltage 1792 768 R90
WINDOW 0 -32 56 VBottom 2
WINDOW 3 32 56 VTop 2
WINDOW 123 0 0 Left 0
WINDOW 39 0 0 Left 0
SYMATTR InstName V3
SYMATTR Value 24.72µ
SYMBOL cmosn-180 288 -48 R90
SYMATTR InstName M1
SYMBOL cmosp-180n 192 224 R270
SYMATTR InstName M2
SYMBOL cmosn-180 288 432 R90
SYMATTR InstName M3
SYMBOL cmosp-180n 192 704 R270
SYMATTR InstName M4
SYMBOL OpAmps\\UniversalOpAmp 1888 752 R0
SYMATTR InstName U1
SYMBOL OpAmps\\UniversalOpAmp 2128 896 R0
SYMATTR InstName U2
TEXT -600 -144 Left 2 !.tran 100u
TEXT -600 -224 Left 2 !.model SW1 SW(Ron = 1u Roff = 1e18 Vt=0.4 Vh=0)
TEXT 720 -24 Left 2 !.ic V(VC1)=1.8
TEXT -600 -184 Left 2 !.include ibm130.lib
TEXT 1488 104 Left 2 !.ic V(VC2)=-1.8
TEXT -592 -256 Left 2 !.model SW2 SW(Ron = 1u Roff = 1e18 Vt=0.1 Vh=0)
