Version 4
SHEET 1 2212 1064
WIRE 1312 144 1280 144
WIRE 1408 144 1312 144
WIRE 1616 160 1584 160
WIRE 2176 160 1760 160
WIRE 1376 176 1280 176
WIRE 1408 176 1376 176
WIRE 1312 256 1312 224
WIRE 1376 256 1312 256
WIRE 512 336 416 336
WIRE 544 336 512 336
WIRE 64 352 -352 352
WIRE 240 352 208 352
WIRE 448 368 416 368
WIRE 544 368 448 368
WIRE 480 448 448 448
WIRE 512 448 512 416
WIRE 512 448 480 448
WIRE 1232 512 1104 512
WIRE 1264 512 1232 512
WIRE 480 528 480 448
WIRE 528 528 480 528
WIRE 704 528 640 528
WIRE 928 528 848 528
WIRE 1152 544 1104 544
WIRE 1264 544 1152 544
WIRE 1200 624 1152 624
WIRE 1232 624 1232 592
WIRE 1232 624 1200 624
WIRE 1344 640 1232 640
WIRE 1200 704 1200 624
WIRE 1232 704 1232 640
WIRE 1232 704 1200 704
WIRE 1248 704 1232 704
WIRE 1456 704 1360 704
WIRE 1664 704 1600 704
WIRE 1712 704 1664 704
WIRE 1200 768 1200 704
WIRE 1200 768 1040 768
WIRE 1456 864 1296 864
WIRE 1664 880 1664 704
WIRE 1664 880 1632 880
WIRE 1456 896 1392 896
WIRE 1296 976 1296 944
WIRE 1344 976 1296 976
WIRE 1392 976 1344 976
WIRE 1040 1008 1040 768
WIRE 1344 1008 1344 976
WIRE 1344 1008 1040 1008
FLAG -352 272 VDD
FLAG 80 560 0
FLAG 80 480 VDD
FLAG 2176 80 VDD
SYMBOL LIFtest_mod 128 352 R0
SYMATTR InstName X1
SYMBOL current -352 272 R0
WINDOW 123 0 0 Left 0
WINDOW 39 0 0 Left 0
SYMATTR InstName I1
SYMATTR Value PULSE(30n 0 110u 1n 1n 440u)
SYMBOL TempotronCircuit_new 320 352 R0
SYMATTR InstName X2
SYMBOL res 496 320 R0
SYMATTR InstName R1
SYMATTR Value 332
SYMBOL res 432 352 R0
SYMATTR InstName R2
SYMATTR Value 220
SYMBOL I_controlled_I_source 576 528 R0
SYMATTR InstName X3
SYMBOL LIFtest_mod 768 528 R0
SYMATTR InstName X4
SYMBOL voltage 80 464 R0
WINDOW 123 0 0 Left 0
WINDOW 39 0 0 Left 0
SYMATTR InstName V1
SYMATTR Value 1.8
SYMBOL TempotronCircuit_new 1008 528 R0
SYMATTR InstName X5
SYMBOL res 1136 528 R0
SYMATTR InstName R3
SYMATTR Value 200
SYMBOL res 1216 496 R0
SYMATTR InstName R4
SYMATTR Value 332
SYMBOL I_controlled_I_source 1296 704 R0
SYMATTR InstName X6
SYMBOL LIFtest_mod 1520 704 R0
SYMATTR InstName X7
SYMBOL res 1376 880 R0
SYMATTR InstName R5
SYMATTR Value 270
SYMBOL res 1280 848 R0
SYMATTR InstName R6
SYMATTR Value 332
SYMBOL TempotronCircuit_new 1552 880 M0
SYMATTR InstName X8
SYMBOL LIFtest_mod 1696 160 M0
SYMATTR InstName X9
SYMBOL current 2176 80 M0
WINDOW 123 0 0 Left 0
WINDOW 39 0 0 Left 0
SYMATTR InstName I2
SYMATTR Value PULSE(15n 0 110u 1n 1n 440u)
SYMBOL TempotronCircuit_new 1504 160 M0
SYMATTR InstName X10
SYMBOL res 1328 128 M0
SYMATTR InstName R7
SYMATTR Value 332
SYMBOL res 1392 160 M0
SYMATTR InstName R8
SYMATTR Value 220
TEXT -32 584 Left 2 !.tran 550u
TEXT 264 480 Left 5 ;LT2
TEXT 728 616 Left 5 ;LT1
TEXT 1464 600 Left 5 ;WM
TEXT 1608 256 Left 5 ;SM
